#### CIF created by Crystallographica 2 ####

data_Arsenic

_audit_creation_method                    'Crystallographica 2' 
_cell_angle_alpha                         90 
_cell_angle_beta                          90 
_cell_angle_gamma                         120 
_cell_formula_units_Z                     6 
_cell_length_a                            3.7598 
_cell_length_b                            3.7598 
_cell_length_c                            10.5475 
_cell_volume                              129.125 
_cgraph_comments                         'The crystal structure of arsenic at 4.2. 78 and 299 K
'
_cgraph_title                             Arsenic 
_chemical_formula_sum                     As 
_symmetry_space_group_name_H-M           'R -3 m'
_symmetry_space_group_name_Hall          '-R 3 2"'

loop_
        _symmetry_equiv_pos_as_xyz
        'x, y, z'
        'x-1/3, y+1/3, z+1/3'
        'x+1/3, y-1/3, z-1/3'
        '-x, -y, -z'
        '-x-1/3, -y+1/3, -z+1/3'
        '-x+1/3, -y-1/3, -z-1/3'
        '-y, x-y, z'
        '-y-1/3, x-y+1/3, z+1/3'
        '-y+1/3, x-y-1/3, z-1/3'
        'y, -x+y, -z'
        'y-1/3, -x+y+1/3, -z+1/3'
        'y+1/3, -x+y-1/3, -z-1/3'
        '-x+y, -x, z'
        '-x+y-1/3, -x+1/3, z+1/3'
        '-x+y+1/3, -x-1/3, z-1/3'
        'x-y, x, -z'
        'x-y-1/3, x+1/3, -z+1/3'
        'x-y+1/3, x-1/3, -z-1/3'
        'x-y, -y, -z'
        'x-y-1/3, -y+1/3, -z+1/3'
        'x-y+1/3, -y-1/3, -z-1/3'
        '-x+y, y, z'
        '-x+y-1/3, y+1/3, z+1/3'
        '-x+y+1/3, y-1/3, z-1/3'
        '-x, -x+y, -z'
        '-x-1/3, -x+y+1/3, -z+1/3'
        '-x+1/3, -x+y-1/3, -z-1/3'
        'x, x-y, z'
        'x-1/3, x-y+1/3, z+1/3'
        'x+1/3, x-y-1/3, z-1/3'
        'y, x, -z'
        'y-1/3, x+1/3, -z+1/3'
        'y+1/3, x-1/3, -z-1/3'
        '-y, -x, z'
        '-y-1/3, -x+1/3, z+1/3'
        '-y+1/3, -x-1/3, z-1/3'

loop_
        _atom_site_label
        _atom_site_type_symbol
        _atom_site_fract_x
        _atom_site_fract_y
        _atom_site_fract_z
        _atom_site_U_iso_or_equiv
        _atom_site_thermal_displace_type
        _atom_site_occupancy
        As1 As 0 0 0.22707 0.0116899 Uiso 1

_eof

#### End of Crystallographic Information File ####
